<?xml version="1.0" encoding="UTF-8"?>

<!-- generated on 12/17/18 17:10:04 by Eclipse SUMO netconvert Version 1.0.1
<configuration xmlns:xsi="http://www.w3.org/2001/XMLSchema-instance" xsi:noNamespaceSchemaLocation="http://sumo.dlr.de/xsd/netconvertConfiguration.xsd">

    <input>
        <osm-files value="icw.osm"/>
    </input>

    <output>
        <output-file value="icw.net.xml"/>
    </output>

    <projection>
        <proj.utm value="true"/>
    </projection>

</configuration>
-->

<net version="1.0" junctionCornerDetail="5" limitTurnSpeed="5.50" xmlns:xsi="http://www.w3.org/2001/XMLSchema-instance" xsi:noNamespaceSchemaLocation="http://sumo.dlr.de/xsd/net_file.xsd">

    <location netOffset="-359416.30,-2051078.85" convBoundary="0.00,0.00,6893.21,5256.27" origBoundary="73.667875,18.545684,73.732967,18.593452" projParameter="+proj=utm +zone=43 +ellps=WGS84 +datum=WGS84 +units=m +no_defs"/>

    <type id="highway.bridleway" priority="1" numLanes="1" speed="2.78" allow="pedestrian" oneway="1" width="2.00"/>
    <type id="highway.bus_guideway" priority="1" numLanes="1" speed="27.78" allow="bus" oneway="1"/>
    <type id="highway.cycleway" priority="1" numLanes="1" speed="8.33" allow="bicycle" oneway="0" width="1.00"/>
    <type id="highway.footway" priority="1" numLanes="1" speed="2.78" allow="pedestrian" oneway="1" width="2.00"/>
    <type id="highway.ford" priority="1" numLanes="1" speed="2.78" allow="army" oneway="0"/>
    <type id="highway.living_street" priority="3" numLanes="1" speed="2.78" disallow="tram rail_urban rail rail_electric ship" oneway="0"/>
    <type id="highway.motorway" priority="13" numLanes="2" speed="44.44" allow="private emergency authority army vip passenger hov taxi bus coach delivery truck trailer motorcycle evehicle custom1 custom2" oneway="1"/>
    <type id="highway.motorway_link" priority="12" numLanes="1" speed="22.22" allow="private emergency authority army vip passenger hov taxi bus coach delivery truck trailer motorcycle evehicle custom1 custom2" oneway="1"/>
    <type id="highway.path" priority="1" numLanes="1" speed="2.78" allow="bicycle pedestrian" oneway="1" width="2.00"/>
    <type id="highway.pedestrian" priority="1" numLanes="1" speed="2.78" allow="pedestrian" oneway="1" width="2.00"/>
    <type id="highway.primary" priority="9" numLanes="2" speed="27.78" disallow="tram rail_urban rail rail_electric ship" oneway="0"/>
    <type id="highway.primary_link" priority="8" numLanes="1" speed="22.22" disallow="tram rail_urban rail rail_electric ship" oneway="0"/>
    <type id="highway.raceway" priority="14" numLanes="2" speed="83.33" allow="vip" oneway="0"/>
    <type id="highway.residential" priority="4" numLanes="1" speed="13.89" disallow="tram rail_urban rail rail_electric ship" oneway="0"/>
    <type id="highway.secondary" priority="7" numLanes="2" speed="27.78" disallow="tram rail_urban rail rail_electric ship" oneway="0"/>
    <type id="highway.secondary_link" priority="6" numLanes="1" speed="22.22" disallow="tram rail_urban rail rail_electric ship" oneway="0"/>
    <type id="highway.service" priority="2" numLanes="1" speed="5.56" allow="delivery bicycle pedestrian" oneway="0"/>
    <type id="highway.stairs" priority="1" numLanes="1" speed="1.39" allow="pedestrian" oneway="1" width="2.00"/>
    <type id="highway.step" priority="1" numLanes="1" speed="1.39" allow="pedestrian" oneway="1" width="2.00"/>
    <type id="highway.steps" priority="1" numLanes="1" speed="1.39" allow="pedestrian" oneway="1" width="2.00"/>
    <type id="highway.tertiary" priority="6" numLanes="1" speed="22.22" disallow="tram rail_urban rail rail_electric ship" oneway="0"/>
    <type id="highway.tertiary_link" priority="5" numLanes="1" speed="22.22" disallow="tram rail_urban rail rail_electric ship" oneway="0"/>
    <type id="highway.track" priority="1" numLanes="1" speed="5.56" disallow="tram rail_urban rail rail_electric ship" oneway="0"/>
    <type id="highway.trunk" priority="11" numLanes="2" speed="27.78" disallow="tram rail_urban rail rail_electric bicycle pedestrian ship" oneway="0"/>
    <type id="highway.trunk_link" priority="10" numLanes="1" speed="22.22" disallow="tram rail_urban rail rail_electric bicycle pedestrian ship" oneway="0"/>
    <type id="highway.unclassified" priority="5" numLanes="1" speed="13.89" disallow="tram rail_urban rail rail_electric ship" oneway="0"/>
    <type id="highway.unsurfaced" priority="1" numLanes="1" speed="8.33" disallow="tram rail_urban rail rail_electric ship" oneway="0"/>
    <type id="railway.light_rail" priority="15" numLanes="1" speed="27.78" allow="rail_urban" oneway="1"/>
    <type id="railway.preserved" priority="15" numLanes="1" speed="27.78" allow="rail" oneway="1"/>
    <type id="railway.rail" priority="15" numLanes="1" speed="83.33" allow="rail rail_electric" oneway="1"/>
    <type id="railway.subway" priority="15" numLanes="1" speed="27.78" allow="rail_urban" oneway="1"/>
    <type id="railway.tram" priority="15" numLanes="1" speed="13.89" allow="tram" oneway="1"/>

    <edge id=":1063812399_0" function="internal">
        <lane id=":1063812399_0_0" index="0" disallow="tram rail_urban rail rail_electric ship" speed="3.65" length="4.67" shape="82.61,-0.27 83.61,-1.32 84.46,-1.58 85.18,-1.05 85.77,0.27"/>
    </edge>
    <edge id=":1157266172_0" function="internal">
        <lane id=":1157266172_0_0" index="0" disallow="tram rail_urban rail rail_electric ship" speed="27.78" length="10.64" shape="2165.85,3556.12 2168.84,3555.52 2170.91,3555.13 2172.91,3554.54 2175.70,3553.34"/>
        <lane id=":1157266172_0_1" index="1" disallow="tram rail_urban rail rail_electric ship" speed="27.78" length="10.64" shape="2166.55,3559.24 2169.75,3558.59 2171.96,3558.16 2174.09,3557.52 2177.07,3556.23"/>
    </edge>
    <edge id=":1157266172_2" function="internal">
        <lane id=":1157266172_2_0" index="0" disallow="tram rail_urban rail rail_electric ship" speed="12.35" length="10.57" shape="2169.19,3562.50 2170.49,3559.26 2171.42,3556.91 2172.87,3555.07 2175.70,3553.34"/>
        <lane id=":1157266172_2_1" index="1" disallow="tram rail_urban rail rail_electric ship" speed="11.15" length="10.57" shape="2172.10,3563.84 2173.10,3561.18 2173.76,3559.22 2174.83,3557.66 2177.07,3556.23"/>
    </edge>
    <edge id=":1157266185_0" function="internal">
        <lane id=":1157266185_0_0" index="0" disallow="tram rail_urban rail rail_electric ship" speed="20.70" length="14.76" shape="2189.48,3491.78 2186.74,3488.55 2184.54,3486.61 2181.98,3485.13 2178.13,3483.28"/>
        <lane id=":1157266185_0_1" index="1" disallow="tram rail_urban rail rail_electric ship" speed="21.21" length="14.76" shape="2191.98,3489.78 2189.12,3486.36 2186.85,3484.28 2184.19,3482.67 2180.17,3480.71"/>
    </edge>
    <edge id=":1157266185_2" function="internal">
        <lane id=":1157266185_2_0" index="0" disallow="tram rail_urban rail rail_electric ship" speed="27.78" length="14.56" shape="2191.98,3489.78 2189.12,3486.52 2187.02,3484.35 2185.28,3481.98 2183.49,3478.10"/>
    </edge>
    <edge id=":1157266185_3" function="internal">
        <lane id=":1157266185_3_0" index="0" disallow="tram rail_urban rail rail_electric ship" speed="27.78" length="14.08" shape="2191.98,3489.78 2189.64,3486.39 2188.54,3483.76 2187.78,3480.94 2186.48,3476.95"/>
    </edge>
    <edge id=":1157266201_0" function="internal">
        <lane id=":1157266201_0_0" index="0" disallow="tram rail_urban rail rail_electric ship" speed="27.78" length="17.66" shape="2792.20,4195.12 2808.62,4201.97"/>
        <lane id=":1157266201_0_1" index="1" disallow="tram rail_urban rail rail_electric ship" speed="27.78" length="17.66" shape="2790.98,4198.08 2807.16,4204.82"/>
    </edge>
    <edge id=":1157266201_2" function="internal">
        <lane id=":1157266201_2_0" index="0" disallow="tram rail_urban rail rail_electric ship" speed="14.38" length="17.60" shape="2790.12,4203.21 2793.75,4202.35 2797.59,4202.06 2801.96,4202.74 2807.16,4204.82"/>
    </edge>
    <edge id=":1157266208_0" function="internal">
        <lane id=":1157266208_0_0" index="0" disallow="tram rail_urban rail rail_electric ship" speed="20.44" length="14.43" shape="2134.55,3489.07 2131.37,3491.73 2129.44,3493.85 2127.96,3496.33 2126.13,3500.07"/>
        <lane id=":1157266208_0_1" index="1" disallow="tram rail_urban rail rail_electric ship" speed="20.96" length="14.43" shape="2132.57,3486.56 2129.20,3489.33 2127.12,3491.53 2125.52,3494.10 2123.57,3498.02"/>
    </edge>
    <edge id=":1157266208_2" function="internal">
        <lane id=":1157266208_2_0" index="0" disallow="tram rail_urban rail rail_electric ship" speed="25.00" length="14.25" shape="2132.57,3486.56 2129.36,3489.34 2127.20,3491.36 2124.84,3493.00 2121.00,3494.63"/>
    </edge>
    <edge id=":1157266208_3" function="internal">
        <lane id=":1157266208_3_0" index="0" disallow="tram rail_urban rail rail_electric ship" speed="25.00" length="13.75" shape="2132.57,3486.56 2129.25,3488.81 2126.66,3489.82 2123.87,3490.47 2119.94,3491.62"/>
    </edge>
    <edge id=":2164945436_0" function="internal">
        <lane id=":2164945436_0_0" index="0" disallow="tram rail_urban rail rail_electric ship" speed="27.78" length="13.52" shape="2228.70,3060.43 2215.20,3059.77"/>
        <lane id=":2164945436_0_1" index="1" disallow="tram rail_urban rail rail_electric ship" speed="27.78" length="13.52" shape="2228.87,3057.23 2215.35,3056.57"/>
    </edge>
    <edge id=":2164945436_2" function="internal">
        <lane id=":2164945436_2_0" index="0" disallow="tram rail_urban rail rail_electric ship" speed="3.65" length="2.34" shape="2228.87,3057.23 2227.71,3056.37 2227.35,3055.55"/>
    </edge>
    <edge id=":2164945436_8" function="internal">
        <lane id=":2164945436_8_0" index="0" speed="3.65" length="2.34" shape="2227.35,3055.55 2227.79,3054.77 2229.03,3054.04"/>
    </edge>
    <edge id=":2164945436_3" function="internal">
        <lane id=":2164945436_3_0" index="0" disallow="tram rail_urban rail rail_electric ship" speed="27.78" length="13.56" shape="2215.64,3050.18 2229.20,3050.84"/>
        <lane id=":2164945436_3_1" index="1" disallow="tram rail_urban rail rail_electric ship" speed="27.78" length="13.56" shape="2215.50,3053.37 2229.03,3054.04"/>
    </edge>
    <edge id=":2164945436_5" function="internal">
        <lane id=":2164945436_5_0" index="0" disallow="tram rail_urban rail rail_electric ship" speed="3.65" length="2.34" shape="2215.50,3053.37 2216.66,3054.23 2217.02,3055.05"/>
    </edge>
    <edge id=":2164945436_9" function="internal">
        <lane id=":2164945436_9_0" index="0" speed="3.65" length="2.34" shape="2217.02,3055.05 2216.59,3055.83 2215.35,3056.57"/>
    </edge>
    <edge id=":2164945436_6" function="internal">
        <lane id=":2164945436_6_0" index="0" disallow="tram rail_urban rail rail_electric ship" speed="6.13" length="8.33" shape="2219.34,3065.67 2219.33,3063.17 2218.64,3061.35 2217.26,3060.22 2215.20,3059.77"/>
    </edge>
    <edge id=":2164945436_7" function="internal">
        <lane id=":2164945436_7_0" index="0" disallow="tram rail_urban rail rail_electric ship" speed="8.34" length="14.76" shape="2222.52,3066.04 2223.46,3060.69 2224.86,3056.90 2226.72,3054.69 2229.03,3054.04"/>
    </edge>
    <edge id=":2476245591_0" function="internal">
        <lane id=":2476245591_0_0" index="0" disallow="tram rail_urban rail rail_electric ship" speed="6.43" length="8.33" shape="2215.01,3059.76 2213.08,3060.03 2211.61,3061.05 2210.60,3062.81 2210.04,3065.32"/>
    </edge>
    <edge id=":2476245591_1" function="internal">
        <lane id=":2476245591_1_0" index="0" disallow="tram rail_urban rail rail_electric ship" speed="27.78" length="13.08" shape="2215.01,3059.76 2201.99,3059.41"/>
        <lane id=":2476245591_1_1" index="1" disallow="tram rail_urban rail rail_electric ship" speed="27.78" length="13.08" shape="2215.15,3056.56 2202.03,3056.21"/>
    </edge>
    <edge id=":2476245591_3" function="internal">
        <lane id=":2476245591_3_0" index="0" disallow="tram rail_urban rail rail_electric ship" speed="3.65" length="2.34" shape="2215.15,3056.56 2213.99,3055.71 2213.63,3054.89"/>
    </edge>
    <edge id=":2476245591_8" function="internal">
        <lane id=":2476245591_8_0" index="0" speed="3.65" length="2.34" shape="2213.63,3054.89 2214.06,3054.11 2215.30,3053.36"/>
    </edge>
    <edge id=":2476245591_4" function="internal">
        <lane id=":2476245591_4_0" index="0" disallow="tram rail_urban rail rail_electric ship" speed="27.78" length="13.28" shape="2202.11,3049.81 2215.44,3050.17"/>
        <lane id=":2476245591_4_1" index="1" disallow="tram rail_urban rail rail_electric ship" speed="27.78" length="13.28" shape="2202.07,3053.01 2215.30,3053.36"/>
    </edge>
    <edge id=":2476245591_6" function="internal">
        <lane id=":2476245591_6_0" index="0" disallow="tram rail_urban rail rail_electric ship" speed="7.81" length="3.86" shape="2202.07,3053.01 2204.68,3053.78 2205.36,3054.70"/>
    </edge>
    <edge id=":2476245591_7" function="internal">
        <lane id=":2476245591_7_0" index="0" disallow="tram rail_urban rail rail_electric ship" speed="3.65" length="2.34" shape="2202.07,3053.01 2203.26,3053.82 2203.65,3054.63"/>
    </edge>
    <edge id=":2476245591_9" function="internal">
        <lane id=":2476245591_9_0" index="0" speed="7.81" length="10.65" shape="2205.36,3054.70 2206.35,3056.03 2207.07,3059.75 2206.86,3064.95"/>
    </edge>
    <edge id=":2476245591_10" function="internal">
        <lane id=":2476245591_10_0" index="0" speed="3.65" length="2.34" shape="2203.65,3054.63 2203.24,3055.42 2202.03,3056.21"/>
    </edge>
    <edge id=":2476245683_0" function="internal">
        <lane id=":2476245683_0_0" index="0" disallow="tram rail_urban rail rail_electric ship" speed="20.35" length="14.11" shape="2150.80,3480.40 2146.83,3481.31 2144.15,3482.18 2141.71,3483.55 2138.47,3485.98"/>
        <lane id=":2476245683_0_1" index="1" disallow="tram rail_urban rail rail_electric ship" speed="20.88" length="14.11" shape="2149.40,3477.43 2145.24,3478.42 2142.43,3479.39 2139.89,3480.89 2136.48,3483.47"/>
    </edge>
    <edge id=":2476245683_2" function="internal">
        <lane id=":2476245683_2_0" index="0" disallow="tram rail_urban rail rail_electric ship" speed="27.78" length="13.99" shape="2146.66,3474.17 2144.59,3477.97 2143.27,3480.70 2141.60,3483.12 2138.47,3485.98"/>
        <lane id=":2476245683_2_1" index="1" disallow="tram rail_urban rail rail_electric ship" speed="27.78" length="13.99" shape="2143.93,3472.50 2142.04,3476.02 2140.86,3478.56 2139.36,3480.82 2136.48,3483.47"/>
    </edge>
    <edge id=":2476245711_0" function="internal">
        <lane id=":2476245711_0_0" index="0" disallow="tram rail_urban rail rail_electric ship" speed="27.78" length="0.73" shape="2199.48,3513.67 2199.48,3513.56 2199.48,3513.48 2199.46,3513.41 2199.44,3513.31"/>
        <lane id=":2476245711_0_1" index="1" disallow="tram rail_urban rail rail_electric ship" speed="27.78" length="0.73" shape="2202.68,3513.68 2202.68,3513.35 2202.67,3513.13 2202.63,3512.91 2202.56,3512.60"/>
    </edge>
    <edge id=":2476245724_0" function="internal">
        <lane id=":2476245724_0_0" index="0" disallow="tram rail_urban rail rail_electric ship" speed="20.20" length="14.19" shape="2123.04,3527.38 2123.97,3531.37 2124.84,3534.07 2126.23,3536.53 2128.69,3539.77"/>
        <lane id=":2476245724_0_1" index="1" disallow="tram rail_urban rail rail_electric ship" speed="20.73" length="14.19" shape="2120.08,3528.80 2121.08,3532.99 2122.06,3535.80 2123.57,3538.36 2126.19,3541.77"/>
    </edge>
    <edge id=":2476245724_2" function="internal">
        <lane id=":2476245724_2_0" index="0" disallow="tram rail_urban rail rail_electric ship" speed="25.00" length="14.06" shape="2116.82,3531.54 2120.64,3533.63 2123.37,3534.96 2125.80,3536.64 2128.69,3539.77"/>
        <lane id=":2476245724_2_1" index="1" disallow="tram rail_urban rail rail_electric ship" speed="25.00" length="14.06" shape="2115.14,3534.27 2118.68,3536.18 2121.24,3537.38 2123.51,3538.89 2126.19,3541.77"/>
    </edge>
    <edge id=":2476245728_0" function="internal">
        <lane id=":2476245728_0_0" index="0" disallow="tram rail_urban rail rail_electric ship" speed="20.42" length="14.33" shape="2131.79,3543.65 2134.44,3546.80 2136.55,3548.71 2139.02,3550.18 2142.74,3551.98"/>
        <lane id=":2476245728_0_1" index="1" disallow="tram rail_urban rail rail_electric ship" speed="20.94" length="14.33" shape="2129.29,3545.65 2132.06,3548.99 2134.24,3551.04 2136.80,3552.63 2140.70,3554.55"/>
    </edge>
    <edge id=":2476245728_2" function="internal">
        <lane id=":2476245728_2_0" index="0" disallow="tram rail_urban rail rail_electric ship" speed="27.78" length="14.15" shape="2129.29,3545.65 2132.06,3548.82 2134.07,3550.96 2135.70,3553.32 2137.32,3557.13"/>
    </edge>
    <edge id=":2476245728_3" function="internal">
        <lane id=":2476245728_3_0" index="0" disallow="tram rail_urban rail rail_electric ship" speed="27.78" length="13.65" shape="2129.29,3545.65 2131.53,3548.94 2132.53,3551.51 2133.16,3554.28 2134.30,3558.19"/>
    </edge>
    <edge id=":2476245764_0" function="internal">
        <lane id=":2476245764_0_0" index="0" disallow="tram rail_urban rail rail_electric ship" speed="3.65" length="4.67" shape="1264.14,3949.58 1265.58,3949.74 1266.30,3950.27 1266.31,3951.16 1265.61,3952.43"/>
    </edge>
    <edge id=":2476245801_0" function="internal">
        <lane id=":2476245801_0_0" index="0" disallow="tram rail_urban rail rail_electric ship" speed="22.05" length="16.63" shape="2080.85,4010.52 2076.18,4011.66 2073.03,4012.77 2070.18,4014.47 2066.39,4017.42"/>
        <lane id=":2476245801_0_1" index="1" disallow="tram rail_urban rail rail_electric ship" speed="22.54" length="16.63" shape="2079.41,4007.57 2074.55,4008.79 2071.28,4010.00 2068.33,4011.83 2064.38,4014.93"/>
    </edge>
    <edge id=":2476245801_2" function="internal">
        <lane id=":2476245801_2_0" index="0" disallow="tram rail_urban rail rail_electric ship" speed="27.78" length="16.50" shape="2076.85,4004.28 2074.02,4008.43 2072.19,4011.39 2070.08,4014.08 2066.39,4017.42"/>
        <lane id=":2476245801_2_1" index="1" disallow="tram rail_urban rail rail_electric ship" speed="27.78" length="16.50" shape="2074.29,4002.36 2071.60,4006.32 2069.87,4009.16 2067.88,4011.74 2064.38,4014.93"/>
    </edge>
    <edge id=":2476245806_0" function="internal">
        <lane id=":2476245806_0_0" index="0" disallow="tram rail_urban rail rail_electric ship" speed="21.55" length="15.99" shape="2134.99,4024.47 2132.01,4020.94 2129.70,4018.74 2126.99,4017.04 2122.83,4015.03"/>
        <lane id=":2476245806_0_1" index="1" disallow="tram rail_urban rail rail_electric ship" speed="22.05" length="15.99" shape="2137.46,4022.45 2134.37,4018.73 2131.98,4016.38 2129.17,4014.56 2124.84,4012.44"/>
    </edge>
    <edge id=":2476245806_2" function="internal">
        <lane id=":2476245806_2_0" index="0" disallow="tram rail_urban rail rail_electric ship" speed="27.78" length="15.87" shape="2137.46,4022.45 2134.33,4018.92 2132.05,4016.56 2130.13,4013.98 2128.05,4009.81"/>
    </edge>
    <edge id=":2476245806_3" function="internal">
        <lane id=":2476245806_3_0" index="0" disallow="tram rail_urban rail rail_electric ship" speed="27.78" length="15.45" shape="2137.46,4022.45 2134.83,4018.77 2133.54,4015.92 2132.60,4012.86 2130.99,4008.55"/>
    </edge>
    <edge id=":2476245807_0" function="internal">
        <lane id=":2476245807_0_0" index="0" disallow="tram rail_urban rail rail_electric ship" speed="22.06" length="16.80" shape="2059.79,4022.75 2056.09,4025.88 2053.81,4028.35 2052.07,4031.23 2049.96,4035.61"/>
        <lane id=":2476245807_0_1" index="1" disallow="tram rail_urban rail rail_electric ship" speed="22.54" length="16.80" shape="2057.78,4020.26 2053.89,4023.51 2051.47,4026.05 2049.60,4029.03 2047.38,4033.59"/>
    </edge>
    <edge id=":2476245807_2" function="internal">
        <lane id=":2476245807_2_0" index="0" disallow="tram rail_urban rail rail_electric ship" speed="25.00" length="16.66" shape="2057.78,4020.26 2054.07,4023.55 2051.63,4025.97 2048.99,4028.07 2044.69,4030.41"/>
    </edge>
    <edge id=":2476245807_3" function="internal">
        <lane id=":2476245807_3_0" index="0" disallow="tram rail_urban rail rail_electric ship" speed="25.00" length="16.27" shape="2057.78,4020.26 2053.90,4023.06 2050.94,4024.51 2047.79,4025.65 2043.33,4027.52"/>
    </edge>
    <edge id=":2476245813_0" function="internal">
        <lane id=":2476245813_0_0" index="0" disallow="tram rail_urban rail rail_electric ship" speed="21.56" length="16.12" shape="2147.13,4044.86 2145.98,4040.35 2144.86,4037.32 2143.16,4034.59 2140.27,4030.94"/>
        <lane id=":2476245813_0_1" index="1" disallow="tram rail_urban rail rail_electric ship" speed="22.05" length="16.12" shape="2150.07,4043.41 2148.85,4038.70 2147.63,4035.56 2145.80,4032.72 2142.75,4028.92"/>
    </edge>
    <edge id=":2476245813_2" function="internal">
        <lane id=":2476245813_2_0" index="0" disallow="tram rail_urban rail rail_electric ship" speed="27.78" length="16.03" shape="2153.32,4040.78 2149.19,4038.16 2146.23,4036.48 2143.55,4034.49 2140.27,4030.94"/>
        <lane id=":2476245813_2_1" index="1" disallow="tram rail_urban rail rail_electric ship" speed="27.78" length="16.03" shape="2155.16,4038.16 2151.23,4035.68 2148.41,4034.12 2145.86,4032.26 2142.75,4028.92"/>
    </edge>
    <edge id=":2476245848_0" function="internal">
        <lane id=":2476245848_0_0" index="0" disallow="tram rail_urban rail rail_electric ship" speed="27.78" length="0.72" shape="2149.44,4054.67 2149.44,4054.56 2149.43,4054.49 2149.42,4054.42 2149.39,4054.31"/>
        <lane id=":2476245848_0_1" index="1" disallow="tram rail_urban rail rail_electric ship" speed="27.78" length="0.72" shape="2152.64,4054.64 2152.63,4054.32 2152.62,4054.10 2152.58,4053.88 2152.51,4053.57"/>
    </edge>
    <edge id=":2476245877_0" function="internal">
        <lane id=":2476245877_0_0" index="0" disallow="tram rail_urban rail rail_electric ship" speed="21.05" length="15.42" shape="2046.09,4077.72 2047.21,4082.02 2048.33,4084.88 2050.01,4087.47 2052.80,4090.94"/>
        <lane id=":2476245877_0_1" index="1" disallow="tram rail_urban rail rail_electric ship" speed="21.55" length="15.42" shape="2043.15,4079.17 2044.34,4083.67 2045.57,4086.65 2047.38,4089.34 2050.32,4092.97"/>
    </edge>
    <edge id=":2476245877_2" function="internal">
        <lane id=":2476245877_2_0" index="0" disallow="tram rail_urban rail rail_electric ship" speed="25.00" length="15.32" shape="2040.07,4081.81 2044.13,4084.19 2047.03,4085.71 2049.64,4087.56 2052.80,4090.94"/>
        <lane id=":2476245877_2_1" index="1" disallow="tram rail_urban rail rail_electric ship" speed="25.00" length="15.32" shape="2038.32,4084.49 2042.13,4086.71 2044.88,4088.10 2047.35,4089.81 2050.32,4092.97"/>
    </edge>
    <edge id=":2476245882_0" function="internal">
        <lane id=":2476245882_0_0" index="0" disallow="tram rail_urban rail rail_electric ship" speed="27.78" length="13.60" shape="2133.04,4099.26 2135.96,4096.66 2137.68,4094.60 2139.21,4092.35 2141.54,4089.18"/>
        <lane id=":2476245882_0_1" index="1" disallow="tram rail_urban rail rail_electric ship" speed="27.78" length="13.60" shape="2135.06,4101.74 2138.14,4099.01 2139.97,4096.86 2141.59,4094.50 2144.05,4091.16"/>
    </edge>
    <edge id=":2476245882_2" function="internal">
        <lane id=":2476245882_2_0" index="0" disallow="tram rail_urban rail rail_electric ship" speed="23.34" length="13.56" shape="2135.06,4101.74 2138.10,4099.09 2140.20,4097.21 2142.53,4095.78 2146.26,4094.45"/>
    </edge>
    <edge id=":2476245882_3" function="internal">
        <lane id=":2476245882_3_0" index="0" disallow="tram rail_urban rail rail_electric ship" speed="22.86" length="13.00" shape="2135.06,4101.74 2138.18,4099.63 2140.66,4098.79 2143.36,4098.36 2147.15,4097.52"/>
    </edge>
    <edge id=":2476245897_0" function="internal">
        <lane id=":2476245897_0_0" index="0" disallow="tram rail_urban rail rail_electric ship" speed="27.78" length="13.71" shape="2073.59,4108.38 2077.19,4110.03 2079.72,4111.01 2082.34,4111.72 2086.21,4112.57"/>
        <lane id=":2476245897_0_1" index="1" disallow="tram rail_urban rail rail_electric ship" speed="27.78" length="13.71" shape="2072.23,4111.28 2076.03,4113.02 2078.70,4114.05 2081.46,4114.80 2085.53,4115.70"/>
    </edge>
    <edge id=":2476245897_2" function="internal">
        <lane id=":2476245897_2_0" index="0" disallow="tram rail_urban rail rail_electric ship" speed="7.96" length="11.80" shape="2072.23,4111.28 2075.55,4113.18 2077.76,4115.26 2078.85,4117.52 2078.82,4119.95"/>
    </edge>
    <edge id=":2476245897_3" function="internal">
        <lane id=":2476245897_3_0" index="0" disallow="tram rail_urban rail rail_electric ship" speed="7.36" length="11.70" shape="2075.71,4119.23 2076.79,4116.99 2078.79,4115.65 2081.70,4115.23 2085.53,4115.70"/>
    </edge>
    <edge id=":2476245897_4" function="internal">
        <lane id=":2476245897_4_0" index="0" disallow="tram rail_urban rail rail_electric ship" speed="3.65" length="4.67" shape="2075.71,4119.23 2076.76,4118.24 2077.63,4118.03 2078.31,4118.60 2078.82,4119.95"/>
    </edge>
    <edge id=":2476245926_0" function="internal">
        <lane id=":2476245926_0_0" index="0" disallow="tram rail_urban rail rail_electric ship" speed="12.98" length="15.45" shape="2753.49,4145.00 2749.08,4143.97 2745.86,4143.80 2742.79,4144.68 2738.80,4146.78"/>
    </edge>
    <edge id=":2476245926_1" function="internal">
        <lane id=":2476245926_1_0" index="0" disallow="tram rail_urban rail rail_electric ship" speed="13.12" length="15.69" shape="2753.49,4145.00 2749.04,4143.40 2745.81,4141.99 2742.71,4141.63 2738.68,4143.18"/>
    </edge>
    <edge id=":2476245926_2" function="internal">
        <lane id=":2476245926_2_0" index="0" disallow="tram rail_urban rail rail_electric ship" speed="27.78" length="15.11" shape="2753.49,4145.00 2749.14,4143.69 2746.27,4142.48 2743.47,4141.04 2739.35,4139.07"/>
        <lane id=":2476245926_2_1" index="1" disallow="tram rail_urban rail rail_electric ship" speed="27.78" length="15.11" shape="2754.30,4141.91 2750.10,4140.64 2747.33,4139.45 2744.63,4138.06 2740.65,4136.15"/>
    </edge>
    <edge id=":2476245944_0" function="internal">
        <lane id=":2476245944_0_0" index="0" disallow="tram rail_urban rail rail_electric ship" speed="5.75" length="14.31" shape="2773.58,4170.23 2769.56,4157.19"/>
        <lane id=":2476245944_0_1" index="1" disallow="tram rail_urban rail rail_electric ship" speed="17.75" length="14.31" shape="2775.23,4169.94 2775.29,4165.49 2775.16,4162.38 2774.34,4159.46 2772.32,4155.57"/>
    </edge>
    <edge id=":2476245944_2" function="internal">
        <lane id=":2476245944_2_0" index="0" disallow="tram rail_urban rail rail_electric ship" speed="27.78" length="14.23" shape="2779.02,4168.18 2775.99,4165.09 2773.83,4163.03 2771.90,4160.80 2769.56,4157.19"/>
        <lane id=":2476245944_2_1" index="1" disallow="tram rail_urban rail rail_electric ship" speed="27.78" length="14.23" shape="2781.38,4166.02 2778.49,4163.08 2776.41,4161.12 2774.56,4159.01 2772.32,4155.57"/>
    </edge>
    <edge id=":2476245956_0" function="internal">
        <lane id=":2476245956_0_0" index="0" disallow="tram rail_urban rail rail_electric ship" speed="27.78" length="0.84" shape="2771.98,4170.78 2772.01,4170.65 2772.03,4170.57 2772.03,4170.48 2772.03,4170.36"/>
        <lane id=":2476245956_0_1" index="1" disallow="tram rail_urban rail rail_electric ship" speed="27.78" length="0.84" shape="2775.07,4171.60 2775.16,4171.24 2775.21,4170.98 2775.23,4170.73 2775.23,4170.35"/>
    </edge>
    <edge id=":2476245959_0" function="internal">
        <lane id=":2476245959_0_0" index="0" disallow="tram rail_urban rail rail_electric ship" speed="16.51" length="13.27" shape="2725.66,4165.79 2725.62,4169.61 2725.74,4172.27 2726.46,4174.78 2728.18,4178.12"/>
        <lane id=":2476245959_0_1" index="1" disallow="tram rail_urban rail rail_electric ship" speed="17.03" length="13.27" shape="2722.46,4166.65 2722.46,4170.71 2722.68,4173.53 2723.54,4176.18 2725.42,4179.73"/>
    </edge>
    <edge id=":2476245959_2" function="internal">
        <lane id=":2476245959_2_0" index="0" disallow="tram rail_urban rail rail_electric ship" speed="27.78" length="12.93" shape="2718.68,4168.79 2721.80,4171.29 2724.05,4172.95 2725.99,4174.85 2728.18,4178.12"/>
        <lane id=":2476245959_2_1" index="1" disallow="tram rail_urban rail rail_electric ship" speed="27.78" length="12.93" shape="2716.57,4171.19 2719.46,4173.49 2721.56,4174.99 2723.38,4176.72 2725.42,4179.73"/>
    </edge>
    <edge id=":2476245963_0" function="internal">
        <lane id=":2476245963_0_0" index="0" disallow="tram rail_urban rail rail_electric ship" speed="15.21" length="11.33" shape="2730.03,4181.29 2731.80,4183.93 2733.41,4185.44 2735.38,4186.58 2738.24,4188.11"/>
        <lane id=":2476245963_0_1" index="1" disallow="tram rail_urban rail rail_electric ship" speed="15.78" length="11.33" shape="2727.27,4182.90 2729.14,4185.78 2730.81,4187.49 2732.87,4188.79 2735.92,4190.48"/>
    </edge>
    <edge id=":2476245963_2" function="internal">
        <lane id=":2476245963_2_0" index="0" disallow="tram rail_urban rail rail_electric ship" speed="19.71" length="11.35" shape="2727.27,4182.90 2728.84,4185.93 2729.60,4188.26 2729.91,4190.61 2730.19,4193.72"/>
    </edge>
    <edge id=":2476245975_0" function="internal">